data/opendss/p1uhs0_1247/p1uhs0_1247--p1udt1878/Lines.dss
New Line.l(r:p1udt40lv-p1ulv42) Units=km Length=0.0161668 bus1=p1udt40lv.1.2 bus2=p1ulv42.1.2 switch=n enabled=y phases=2 Linecode=1P_OH_AL_2/0_Rucina_2

New Line.l(r:p1udm147-p1ulv4632) Units=km Length=0.0427966 bus1=p1udm147.1.2 bus2=p1ulv4632.1.2 switch=n enabled=y phases=2 Linecode=1P_OH_AL_4/0_Zuzara_2

New Line.l(r:p1udm147-p1ulv8502) Units=km Length=0.0164908 bus1=p1udm147.1.2 bus2=p1ulv8502.1.2 switch=n enabled=y phases=2 Linecode=1P_OH_AL_2/0_Rucina_2

New Line.l(r:p1udm147-p1udt40lv) Units=km Length=0.0183911 bus1=p1udt40lv.1.2 bus2=p1udm147.1.2 switch=n enabled=y phases=2 Linecode=1P_OH_AL_2/0_Rucina_2

New Line.l(r:p1udm149-p1ulv10352) Units=km Length=0.0120041 bus1=p1udm149.1.2 bus2=p1ulv10352.1.2 switch=n enabled=y phases=2 Linecode=1P_OH_AL_2/0_Rucina_2

New Line.l(r:p1udm149-p1udt40lv) Units=km Length=0.0750391 bus1=p1udt40lv.1.2 bus2=p1udm149.1.2 switch=n enabled=y phases=2 Linecode=1P_OH_AL_4/0_Zuzara_2

New Line.l(r:p1udm191-p1ulv56) Units=km Length=0.0188905 bus1=p1udm191.1.2 bus2=p1ulv56.1.2 switch=n enabled=y phases=2 Linecode=1P_UG_AL_1/0_Brenau_2

New Line.l(r:p1udm191-p1udt54lv) Units=km Length=0.03855000000000001 bus1=p1udt54lv.1.2 bus2=p1udm191.1.2 switch=n enabled=y phases=2 Linecode=1P_UG_AL_1/0_Brenau_2

New Line.l(r:p1udm192-p1ulv1949) Units=km Length=0.00972083 bus1=p1udm192.1.2 bus2=p1ulv1949.1.2 switch=n enabled=y phases=2 Linecode=1P_UG_AL_1/0_Brenau_2

New Line.l(r:p1udm192-p1udt54lv) Units=km Length=0.0573511 bus1=p1udt54lv.1.2 bus2=p1udm192.1.2 switch=n enabled=y phases=2 Linecode=1P_UG_AL_1/0_Brenau_2

New Line.l(r:p1udm193-p1ulv57) Units=km Length=0.0120376 bus1=p1udm193.1.2 bus2=p1ulv57.1.2 switch=n enabled=y phases=2 Linecode=1P_OH_AL_2/0_Rucina_2

New Line.l(r:p1udm195-p1ulv4187) Units=km Length=0.00859724 bus1=p1udm195.1.2 bus2=p1ulv4187.1.2 switch=n enabled=y phases=2 Linecode=1P_OH_AL_2/0_Rucina_2

New Line.l(r:p1udm193-p1udm195) Units=km Length=0.0182192 bus1=p1udm193.1.2 bus2=p1udm195.1.2 switch=n enabled=y phases=2 Linecode=1P_OH_AL_2/0_Rucina_2

New Line.l(r:p1udm193-p1udt55lv) Units=km Length=0.0182192 bus1=p1udt55lv.1.2 bus2=p1udm193.1.2 switch=n enabled=y phases=2 Linecode=1P_OH_AL_2/0_Rucina_2

New Line.l(r:p1udm194-p1ulv1570) Units=km Length=0.005663680000000001 bus1=p1udm194.1.2 bus2=p1ulv1570.1.2 switch=n enabled=y phases=2 Linecode=1P_OH_AL_2/0_Rucina_2

New Line.l(r:p1udm194-p1udt55lv) Units=km Length=0.0366049 bus1=p1udt55lv.1.2 bus2=p1udm194.1.2 switch=n enabled=y phases=2 Linecode=1P_OH_AL_4/0_Zuzara_2

New Line.l(r:p1udm208-p1ulv9294) Units=km Length=0.017047 bus1=p1udm208.1.2 bus2=p1ulv9294.1.2 switch=n enabled=y phases=2 Linecode=1P_UG_AL_4/0_Sweetbriar_2

New Line.l(r:p1udm208-p1udt58lv) Units=km Length=0.02863 bus1=p1udt58lv.1.2 bus2=p1udm208.1.2 switch=n enabled=y phases=2 Linecode=1P_UG_AL_4/0_Sweetbriar_2

New Line.l(r:p1udm209-p1ulv11689) Units=km Length=0.0207998 bus1=p1udm209.1.2 bus2=p1ulv11689.1.2 switch=n enabled=y phases=2 Linecode=1P_UG_AL_1/0_Brenau_2

New Line.l(r:p1udm207-p1ulv60) Units=km Length=0.014078900000000002 bus1=p1udm207.1.2 bus2=p1ulv60.1.2 switch=n enabled=y phases=2 Linecode=1P_UG_AL_1/0_Brenau_2

New Line.l(r:p1udm207-p1udm209) Units=km Length=0.00955 bus1=p1udm209.1.2 bus2=p1udm207.1.2 switch=n enabled=y phases=2 Linecode=1P_UG_AL_1/0_Brenau_2

New Line.l(r:p1udm209-p1udt58lv) Units=km Length=0.009540010000000002 bus1=p1udt58lv.1.2 bus2=p1udm209.1.2 switch=n enabled=y phases=2 Linecode=1P_UG_AL_2/0_Converse_2

New Line.l(r:p1udt59lv-p1ulv193) Units=km Length=0.01181 bus1=p1udt59lv.1.2 bus2=p1ulv193.1.2 switch=n enabled=y phases=2 Linecode=1P_UG_AL_1/0_Brenau_2

New Line.l(r:p1udt59lv-p1ulv3809) Units=km Length=0.04111490000000001 bus1=p1udt59lv.1.2 bus2=p1ulv3809.1.2 switch=n enabled=y phases=2 Linecode=1P_UG_AL_1/0_Brenau_2

New Line.l(r:p1udm213-p1ulv6515) Units=km Length=0.0107054 bus1=p1udm213.1.2 bus2=p1ulv6515.1.2 switch=n enabled=y phases=2 Linecode=1P_UG_AL_1/0_Brenau_2

New Line.l(r:p1udm213-p1ulv7886) Units=km Length=0.014948 bus1=p1udm213.1.2 bus2=p1ulv7886.1.2 switch=n enabled=y phases=2 Linecode=1P_UG_AL_1/0_Brenau_2

New Line.l(r:p1udm213-p1ulv10981) Units=km Length=0.0139844 bus1=p1udm213.1.2 bus2=p1ulv10981.1.2 switch=n enabled=y phases=2 Linecode=1P_UG_AL_1/0_Brenau_2

New Line.l(r:p1udm213-p1udt59lv) Units=km Length=0.0193646 bus1=p1udt59lv.1.2 bus2=p1udm213.1.2 switch=n enabled=y phases=2 Linecode=1P_UG_AL_4/0_Sweetbriar_2

New Line.l(r:p1udm214-p1ulv6650) Units=km Length=0.0136538 bus1=p1udm214.1.2 bus2=p1ulv6650.1.2 switch=n enabled=y phases=2 Linecode=1P_UG_AL_1/0_Brenau_2

New Line.l(r:p1udm214-p1ulv11928) Units=km Length=0.0459037 bus1=p1udm214.1.2 bus2=p1ulv11928.1.2 switch=n enabled=y phases=2 Linecode=1P_UG_AL_1/0_Brenau_2

New Line.l(r:p1udm210-p1ulv61) Units=km Length=0.0136505 bus1=p1udm210.1.2 bus2=p1ulv61.1.2 switch=n enabled=y phases=2 Linecode=1P_UG_AL_1/0_Brenau_2

New Line.l(r:p1udm210-p1udm214) Units=km Length=0.009682280000000001 bus1=p1udm214.1.2 bus2=p1udm210.1.2 switch=n enabled=y phases=2 Linecode=1P_UG_AL_1/0_Brenau_2

New Line.l(r:p1udm214-p1udt59lv) Units=km Length=0.009682280000000001 bus1=p1udt59lv.1.2 bus2=p1udm214.1.2 switch=n enabled=y phases=2 Linecode=1P_UG_AL_4/0_Sweetbriar_2

New Line.l(r:p1udm218-p1ulv62) Units=km Length=0.0166689 bus1=p1udm218.1.2 bus2=p1ulv62.1.2 switch=n enabled=y phases=2 Linecode=1P_UG_AL_1/0_Brenau_2

New Line.l(r:p1udm218-p1udt60lv) Units=km Length=0.0195703 bus1=p1udt60lv.1.2 bus2=p1udm218.1.2 switch=n enabled=y phases=2 Linecode=1P_UG_AL_1/0_Brenau_2

New Line.l(r:p1udm219-p1ulv2956) Units=km Length=0.00813521 bus1=p1udm219.1.2 bus2=p1ulv2956.1.2 switch=n enabled=y phases=2 Linecode=1P_UG_AL_1/0_Brenau_2

New Line.l(r:p1udm219-p1udt60lv) Units=km Length=0.0492726 bus1=p1udt60lv.1.2 bus2=p1udm219.1.2 switch=n enabled=y phases=2 Linecode=1P_UG_AL_1/0_Brenau_2

New Line.l(r:p1udt158lv-p1ulv162) Units=km Length=0.0144973 bus1=p1udt158lv.1.2 bus2=p1ulv162.1.2 switch=n enabled=y phases=2 Linecode=1P_UG_AL_1/0_Brenau_2

New Line.l(r:p1udm646-p1ulv178) Units=km Length=0.0181984 bus1=p1udm646.1.2 bus2=p1ulv178.1.2 switch=n enabled=y phases=2 Linecode=1P_OH_AL_2/0_Rucina_2

New Line.l(r:p1udm646-p1udt174lv) Units=km Length=0.0189115 bus1=p1udt174lv.1.2 bus2=p1udm646.1.2 switch=n enabled=y phases=2 Linecode=1P_OH_AL_2/0_Rucina_2

New Line.l(r:p1udm647-p1ulv7869) Units=km Length=0.0113906 bus1=p1udm647.1.2 bus2=p1ulv7869.1.2 switch=n enabled=y phases=2 Linecode=1P_OH_AL_2/0_Rucina_2

New Line.l(r:p1udm647-p1udt174lv) Units=km Length=0.0195537 bus1=p1udt174lv.1.2 bus2=p1udm647.1.2 switch=n enabled=y phases=2 Linecode=1P_OH_AL_2/0_Rucina_2

New Line.l(r:p1udt176lv-p1ulv4042) Units=km Length=0.0202589 bus1=p1udt176lv.1.2 bus2=p1ulv4042.1.2 switch=n enabled=y phases=2 Linecode=1P_OH_AL_2/0_Rucina_2

New Line.l(r:p1udt176lv-p1ulv7141) Units=km Length=0.00876325 bus1=p1udt176lv.1.2 bus2=p1ulv7141.1.2 switch=n enabled=y phases=2 Linecode=1P_OH_AL_2/0_Rucina_2

New Line.l(r:p1udm655-p1ulv180) Units=km Length=0.0150802 bus1=p1udm655.1.2 bus2=p1ulv180.1.2 switch=n enabled=y phases=2 Linecode=1P_OH_AL_2/0_Rucina_2

New Line.l(r:p1udm655-p1udt176lv) Units=km Length=0.0181 bus1=p1udt176lv.1.2 bus2=p1udm655.1.2 switch=n enabled=y phases=2 Linecode=1P_OH_AL_2/0_Rucina_2

New Line.l(r:p1udm657-p1ulv5441) Units=km Length=0.0170114 bus1=p1udm657.1.2 bus2=p1ulv5441.1.2 switch=n enabled=y phases=2 Linecode=1P_OH_AL_2/0_Rucina_2

New Line.l(r:p1udm657-p1ulv7748) Units=km Length=0.015343 bus1=p1udm657.1.2 bus2=p1ulv7748.1.2 switch=n enabled=y phases=2 Linecode=1P_OH_AL_2/0_Rucina_2

New Line.l(r:p1udm657-p1udt176lv) Units=km Length=0.01811 bus1=p1udt176lv.1.2 bus2=p1udm657.1.2 switch=n enabled=y phases=2 Linecode=1P_OH_AL_2/0_Rucina_2

New Line.l(r:p1udm674-p1ulv187) Units=km Length=0.0174955 bus1=p1udm674.1.2 bus2=p1ulv187.1.2 switch=n enabled=y phases=2 Linecode=1P_OH_AL_2/0_Rucina_2

New Line.l(r:p1udm674-p1udt182lv) Units=km Length=0.055398600000000006 bus1=p1udt182lv.1.2 bus2=p1udm674.1.2 switch=n enabled=y phases=2 Linecode=1P_OH_AL_4/0_Zuzara_2

New Line.l(r:p1udm675-p1ulv2829) Units=km Length=0.011869 bus1=p1udm675.1.2 bus2=p1ulv2829.1.2 switch=n enabled=y phases=2 Linecode=1P_OH_AL_2/0_Rucina_2

New Line.l(r:p1udm675-p1udt182lv) Units=km Length=0.0198103 bus1=p1udt182lv.1.2 bus2=p1udm675.1.2 switch=n enabled=y phases=2 Linecode=1P_OH_AL_2/0_Rucina_2

New Line.l(r:p1udt183lv-p1ulv4761) Units=km Length=0.0141006 bus1=p1udt183lv.1.2 bus2=p1ulv4761.1.2 switch=n enabled=y phases=2 Linecode=1P_UG_AL_1/0_Brenau_2

New Line.l(r:p1udm676-p1ulv188) Units=km Length=0.0267799 bus1=p1udm676.1.2 bus2=p1ulv188.1.2 switch=n enabled=y phases=2 Linecode=1P_UG_AL_1/0_Brenau_2

New Line.l(r:p1udm676-p1udt183lv) Units=km Length=0.0197324 bus1=p1udt183lv.1.2 bus2=p1udm676.1.2 switch=n enabled=y phases=2 Linecode=1P_UG_AL_1/0_Brenau_2

New Line.l(r:p1udm677-p1ulv1569) Units=km Length=0.0156217 bus1=p1udm677.1.2 bus2=p1ulv1569.1.2 switch=n enabled=y phases=2 Linecode=1P_UG_AL_1/0_Brenau_2

New Line.l(r:p1udm677-p1udt183lv) Units=km Length=0.0197324 bus1=p1udt183lv.1.2 bus2=p1udm677.1.2 switch=n enabled=y phases=2 Linecode=1P_UG_AL_1/0_Brenau_2

New Line.l(r:p1udt187lv-p1ulv2717) Units=km Length=0.0128888 bus1=p1udt187lv.1.2 bus2=p1ulv2717.1.2 switch=n enabled=y phases=2 Linecode=1P_OH_AL_2/0_Rucina_2

New Line.l(r:p1udm686-p1ulv192) Units=km Length=0.0120839 bus1=p1udm686.1.2 bus2=p1ulv192.1.2 switch=n enabled=y phases=2 Linecode=1P_OH_AL_2/0_Rucina_2

New Line.l(r:p1udm686-p1udt187lv) Units=km Length=0.038754 bus1=p1udt187lv.1.2 bus2=p1udm686.1.2 switch=n enabled=y phases=2 Linecode=1P_OH_AL_4/0_Zuzara_2

New Line.l(r:p1udm938-p1ulv275) Units=km Length=0.0148766 bus1=p1udm938.1.2 bus2=p1ulv275.1.2 switch=n enabled=y phases=2 Linecode=1P_UG_AL_1/0_Brenau_2

New Line.l(r:p1udm938-p1udt261lv) Units=km Length=0.0100005 bus1=p1udt261lv.1.2 bus2=p1udm938.1.2 switch=n enabled=y phases=2 Linecode=1P_UG_AL_1/0_Brenau_2

New Line.l(r:p1udm939-p1ulv9881) Units=km Length=0.0170991 bus1=p1udm939.1.2 bus2=p1ulv9881.1.2 switch=n enabled=y phases=2 Linecode=1P_UG_AL_1/0_Brenau_2

New Line.l(r:p1udm939-p1udt261lv) Units=km Length=0.00999074 bus1=p1udt261lv.1.2 bus2=p1udm939.1.2 switch=n enabled=y phases=2 Linecode=1P_UG_AL_1/0_Brenau_2

New Line.l(r:p1udt266lv-p1ulv281) Units=km Length=0.00853459 bus1=p1udt266lv.1.2 bus2=p1ulv281.1.2 switch=n enabled=y phases=2 Linecode=1P_OH_AL_2/0_Rucina_2

New Line.l(r:p1udm991-p1ulv288) Units=km Length=0.0148138 bus1=p1udm991.1.2 bus2=p1ulv288.1.2 switch=n enabled=y phases=2 Linecode=1P_UG_AL_1/0_Brenau_2

New Line.l(r:p1udm991-p1udt273lv) Units=km Length=0.06112730000000001 bus1=p1udt273lv.1.2 bus2=p1udm991.1.2 switch=n enabled=y phases=2 Linecode=1P_UG_AL_1/0_Brenau_2

New Line.l(r:p1udm992-p1ulv2938) Units=km Length=0.0148971 bus1=p1udm992.1.2 bus2=p1ulv2938.1.2 switch=n enabled=y phases=2 Linecode=1P_UG_AL_1/0_Brenau_2

New Line.l(r:p1udm992-p1udt273lv) Units=km Length=0.00972272 bus1=p1udt273lv.1.2 bus2=p1udm992.1.2 switch=n enabled=y phases=2 Linecode=1P_UG_AL_1/0_Brenau_2

New Line.l(r:p1udt276lv-p1ulv291) Units=km Length=0.0196251 bus1=p1udt276lv.1.2 bus2=p1ulv291.1.2 switch=n enabled=y phases=2 Linecode=1P_OH_AL_2/0_Rucina_2

New Line.l(r:p1udt276lv-p1ulv6249) Units=km Length=0.0172888 bus1=p1udt276lv.1.2 bus2=p1ulv6249.1.2 switch=n enabled=y phases=2 Linecode=1P_OH_AL_2/0_Rucina_2

New Line.l(r:p1udm1001-p1ulv2597) Units=km Length=0.0180979 bus1=p1udm1001.1.2 bus2=p1ulv2597.1.2 switch=n enabled=y phases=2 Linecode=1P_OH_AL_2/0_Rucina_2

New Line.l(r:p1udm1001-p1ulv3567) Units=km Length=0.0216945 bus1=p1udm1001.1.2 bus2=p1ulv3567.1.2 switch=n enabled=y phases=2 Linecode=1P_OH_AL_2/0_Rucina_2

New Line.l(r:p1udm1001-p1udt276lv) Units=km Length=0.018742600000000005 bus1=p1udt276lv.1.2 bus2=p1udm1001.1.2 switch=n enabled=y phases=2 Linecode=1P_OH_AL_2/0_Rucina_2

New Line.l(r:p1udm1027-p1ulv300) Units=km Length=0.0651776 bus1=p1udm1027.1.2 bus2=p1ulv300.1.2 switch=n enabled=y phases=2 Linecode=1P_OH_AL_4/0_Zuzara_2

New Line.l(r:p1udm1027-p1udt284lv) Units=km Length=0.017751900000000004 bus1=p1udt284lv.1.2 bus2=p1udm1027.1.2 switch=n enabled=y phases=2 Linecode=1P_OH_AL_2/0_Rucina_2

New Line.l(r:p1udm1028-p1ulv9669) Units=km Length=0.0235381 bus1=p1udm1028.1.2 bus2=p1ulv9669.1.2 switch=n enabled=y phases=2 Linecode=1P_OH_AL_2/0_Rucina_2

New Line.l(r:p1udm1028-p1udt284lv) Units=km Length=0.0177471 bus1=p1udt284lv.1.2 bus2=p1udm1028.1.2 switch=n enabled=y phases=2 Linecode=1P_OH_AL_2/0_Rucina_2

New Line.l(r:p1udm1360-p1ulv400) Units=km Length=0.0104766 bus1=p1udm1360.1.2 bus2=p1ulv400.1.2 switch=n enabled=y phases=2 Linecode=1P_OH_AL_2/0_Rucina_2

New Line.l(r:p1udm1360-p1udt374lv) Units=km Length=0.043677 bus1=p1udt374lv.1.2 bus2=p1udm1360.1.2 switch=n enabled=y phases=2 Linecode=1P_OH_AL_4/0_Zuzara_2

New Line.l(r:p1udm1361-p1ulv10457) Units=km Length=0.0184382 bus1=p1udm1361.1.2 bus2=p1ulv10457.1.2 switch=n enabled=y phases=2 Linecode=1P_OH_AL_2/0_Rucina_2

New Line.l(r:p1udm1361-p1udt374lv) Units=km Length=0.0382937 bus1=p1udt374lv.1.2 bus2=p1udm1361.1.2 switch=n enabled=y phases=2 Linecode=1P_OH_AL_4/0_Zuzara_2

New Line.l(r:p1udt376lv-p1ulv3562) Units=km Length=0.0193064 bus1=p1udt376lv.1.2 bus2=p1ulv3562.1.2 switch=n enabled=y phases=2 Linecode=1P_UG_AL_1/0_Brenau_2

New Line.l(r:p1udt376lv-p1ulv6248) Units=km Length=0.0490172 bus1=p1udt376lv.1.2 bus2=p1ulv6248.1.2 switch=n enabled=y phases=2 Linecode=1P_UG_AL_1/0_Brenau_2

New Line.l(r:p1udt376lv-p1ulv11678) Units=km Length=0.0134513 bus1=p1udt376lv.1.2 bus2=p1ulv11678.1.2 switch=n enabled=y phases=2 Linecode=1P_UG_AL_1/0_Brenau_2

New Line.l(r:p1udm1363-p1ulv402) Units=km Length=0.0137121 bus1=p1udm1363.1.2 bus2=p1ulv402.1.2 switch=n enabled=y phases=2 Linecode=1P_UG_AL_1/0_Brenau_2

New Line.l(r:p1udm1363-p1udt376lv) Units=km Length=0.00993766 bus1=p1udt376lv.1.2 bus2=p1udm1363.1.2 switch=n enabled=y phases=2 Linecode=1P_UG_AL_1/0_Brenau_2

New Line.l(r:p1udt378lv-p1ulv1562) Units=km Length=0.0162776 bus1=p1udt378lv.1.2 bus2=p1ulv1562.1.2 switch=n enabled=y phases=2 Linecode=1P_UG_AL_1/0_Brenau_2

New Line.l(r:p1udt378lv-p1ulv7746) Units=km Length=0.0115945 bus1=p1udt378lv.1.2 bus2=p1ulv7746.1.2 switch=n enabled=y phases=2 Linecode=1P_UG_AL_1/0_Brenau_2

New Line.l(r:p1udm1374-p1ulv404) Units=km Length=0.0190408 bus1=p1udm1374.1.2 bus2=p1ulv404.1.2 switch=n enabled=y phases=2 Linecode=1P_UG_AL_1/0_Brenau_2

New Line.l(r:p1udm1374-p1ulv12265) Units=km Length=0.0105026 bus1=p1udm1374.1.2 bus2=p1ulv12265.1.2 switch=n enabled=y phases=2 Linecode=1P_UG_AL_1/0_Brenau_2

New Line.l(r:p1udm1374-p1udt378lv) Units=km Length=0.019874500000000003 bus1=p1udt378lv.1.2 bus2=p1udm1374.1.2 switch=n enabled=y phases=2 Linecode=1P_UG_AL_2/0_Converse_2

New Line.l(r:p1udm1375-p1ulv1561) Units=km Length=0.0175743 bus1=p1udm1375.1.2 bus2=p1ulv1561.1.2 switch=n enabled=y phases=2 Linecode=1P_UG_AL_1/0_Brenau_2

New Line.l(r:p1udm1379-p1ulv10625) Units=km Length=0.0107251 bus1=p1udm1379.1.2 bus2=p1ulv10625.1.2 switch=n enabled=y phases=2 Linecode=1P_UG_AL_1/0_Brenau_2

New Line.l(r:p1udm1377-p1ulv2078) Units=km Length=0.018300300000000002 bus1=p1udm1377.1.2 bus2=p1ulv2078.1.2 switch=n enabled=y phases=2 Linecode=1P_UG_AL_1/0_Brenau_2

New Line.l(r:p1udm1377-p1udm1379) Units=km Length=0.00993766 bus1=p1udm1379.1.2 bus2=p1udm1377.1.2 switch=n enabled=y phases=2 Linecode=1P_UG_AL_1/0_Brenau_2

New Line.l(r:p1udm1375-p1udm1379) Units=km Length=0.00993727 bus1=p1udm1375.1.2 bus2=p1udm1379.1.2 switch=n enabled=y phases=2 Linecode=1P_UG_AL_4/0_Sweetbriar_2

New Line.l(r:p1udm1375-p1udt378lv) Units=km Length=0.00992766 bus1=p1udt378lv.1.2 bus2=p1udm1375.1.2 switch=n enabled=y phases=2 Linecode=1P_UG_AL_4/0_Sweetbriar_2

New Line.l(r:p1udt389lv-p1ulv6261) Units=km Length=0.014101 bus1=p1udt389lv.1.2 bus2=p1ulv6261.1.2 switch=n enabled=y phases=2 Linecode=1P_UG_AL_1/0_Brenau_2

New Line.l(r:p1udm1419-p1ulv417) Units=km Length=0.0119931 bus1=p1udm1419.1.2 bus2=p1ulv417.1.2 switch=n enabled=y phases=2 Linecode=1P_UG_AL_1/0_Brenau_2

New Line.l(r:p1udm1419-p1ulv3331) Units=km Length=0.014680800000000003 bus1=p1udm1419.1.2 bus2=p1ulv3331.1.2 switch=n enabled=y phases=2 Linecode=1P_UG_AL_2/0_Converse_2

New Line.l(r:p1udm1419-p1udt389lv) Units=km Length=0.0189318 bus1=p1udt389lv.1.2 bus2=p1udm1419.1.2 switch=n enabled=y phases=2 Linecode=1P_UG_AL_4/0_Sweetbriar_2

New Line.l(r:p1udm1423-p1ulv10638) Units=km Length=0.0135572 bus1=p1udm1423.1.2 bus2=p1ulv10638.1.2 switch=n enabled=y phases=2 Linecode=1P_UG_AL_2/0_Converse_2

New Line.l(r:p1udm1421-p1ulv5571) Units=km Length=0.0144075 bus1=p1udm1421.1.2 bus2=p1ulv5571.1.2 switch=n enabled=y phases=2 Linecode=1P_UG_AL_1/0_Brenau_2

New Line.l(r:p1udm1421-p1udm1423) Units=km Length=0.0189218 bus1=p1udm1423.1.2 bus2=p1udm1421.1.2 switch=n enabled=y phases=2 Linecode=1P_UG_AL_1/0_Brenau_2

New Line.l(r:p1udm1423-p1udt389lv) Units=km Length=0.00946076 bus1=p1udt389lv.1.2 bus2=p1udm1423.1.2 switch=n enabled=y phases=2 Linecode=1P_UG_AL_4/0_Sweetbriar_2

New Line.l(r:p1udt390lv-p1ulv4301) Units=km Length=0.0144951 bus1=p1udt390lv.1.2 bus2=p1ulv4301.1.2 switch=n enabled=y phases=2 Linecode=1P_UG_AL_1/0_Brenau_2

New Line.l(r:p1udm1425-p1ulv3197) Units=km Length=0.0152022 bus1=p1udm1425.1.2 bus2=p1ulv3197.1.2 switch=n enabled=y phases=2 Linecode=1P_UG_AL_1/0_Brenau_2

New Line.l(r:p1udm1425-p1udt390lv) Units=km Length=0.00995018 bus1=p1udt390lv.1.2 bus2=p1udm1425.1.2 switch=n enabled=y phases=2 Linecode=1P_UG_AL_1/0_Brenau_2

New Line.l(r:p1udm1427-p1ulv8646) Units=km Length=0.015238700000000003 bus1=p1udm1427.1.2 bus2=p1ulv8646.1.2 switch=n enabled=y phases=2 Linecode=1P_UG_AL_1/0_Brenau_2

New Line.l(r:p1udm1424-p1ulv418) Units=km Length=0.0150793 bus1=p1udm1424.1.2 bus2=p1ulv418.1.2 switch=n enabled=y phases=2 Linecode=1P_UG_AL_1/0_Brenau_2

New Line.l(r:p1udm1424-p1udm1427) Units=km Length=0.00995013 bus1=p1udm1427.1.2 bus2=p1udm1424.1.2 switch=n enabled=y phases=2 Linecode=1P_UG_AL_1/0_Brenau_2

New Line.l(r:p1udm1427-p1udt390lv) Units=km Length=0.00996018 bus1=p1udt390lv.1.2 bus2=p1udm1427.1.2 switch=n enabled=y phases=2 Linecode=1P_UG_AL_2/0_Converse_2

New Line.l(r:p1udt467lv-p1ulv500) Units=km Length=0.0304256 bus1=p1udt467lv.1.2 bus2=p1ulv500.1.2 switch=n enabled=y phases=2 Linecode=1P_OH_AL_4/0_Zuzara_2

New Line.l(r:p1udt567lv-p1ulv5872) Units=km Length=0.014745 bus1=p1udt567lv.1.2 bus2=p1ulv5872.1.2 switch=n enabled=y phases=2 Linecode=1P_OH_AL_2/0_Rucina_2

New Line.l(r:p1udm2090-p1ulv606) Units=km Length=0.0112887 bus1=p1udm2090.1.2 bus2=p1ulv606.1.2 switch=n enabled=y phases=2 Linecode=1P_OH_AL_2/0_Rucina_2

New Line.l(r:p1udm2090-p1udt567lv) Units=km Length=0.0583583 bus1=p1udt567lv.1.2 bus2=p1udm2090.1.2 switch=n enabled=y phases=2 Linecode=1P_OH_AL_4/0_Zuzara_2

New Line.l(r:p1udm2091-p1ulv2330) Units=km Length=0.0191544 bus1=p1udm2091.1.2 bus2=p1ulv2330.1.2 switch=n enabled=y phases=2 Linecode=1P_OH_AL_2/0_Rucina_2

New Line.l(r:p1udm2091-p1udt567lv) Units=km Length=0.0198929 bus1=p1udt567lv.1.2 bus2=p1udm2091.1.2 switch=n enabled=y phases=2 Linecode=1P_OH_AL_2/0_Rucina_2

New Line.l(r:p1udt568lv-p1ulv607) Units=km Length=0.0139319 bus1=p1udt568lv.1.2 bus2=p1ulv607.1.2 switch=n enabled=y phases=2 Linecode=1P_OH_AL_2/0_Rucina_2

New Line.l(r:p1udm2094-p1ulv1559) Units=km Length=0.0148462 bus1=p1udm2094.1.2 bus2=p1ulv1559.1.2 switch=n enabled=y phases=2 Linecode=1P_OH_AL_2/0_Rucina_2

New Line.l(r:p1udm2094-p1udt568lv) Units=km Length=0.019800700000000004 bus1=p1udt568lv.1.2 bus2=p1udm2094.1.2 switch=n enabled=y phases=2 Linecode=1P_OH_AL_2/0_Rucina_2

New Line.l(r:p1udm2137-p1ulv620) Units=km Length=0.00840788 bus1=p1udm2137.1.2 bus2=p1ulv620.1.2 switch=n enabled=y phases=2 Linecode=1P_UG_AL_1/0_Brenau_2

New Line.l(r:p1udm2137-p1udt580lv) Units=km Length=0.009682280000000001 bus1=p1udt580lv.1.2 bus2=p1udm2137.1.2 switch=n enabled=y phases=2 Linecode=1P_UG_AL_1/0_Brenau_2

New Line.l(r:p1udm2138-p1ulv5451) Units=km Length=0.0119126 bus1=p1udm2138.1.2 bus2=p1ulv5451.1.2 switch=n enabled=y phases=2 Linecode=1P_UG_AL_1/0_Brenau_2

New Line.l(r:p1udm2138-p1udt580lv) Units=km Length=0.009682280000000001 bus1=p1udt580lv.1.2 bus2=p1udm2138.1.2 switch=n enabled=y phases=2 Linecode=1P_UG_AL_1/0_Brenau_2

New Line.l(r:p1udt652lv-p1ulv8890) Units=km Length=0.00991268 bus1=p1udt652lv.1.2 bus2=p1ulv8890.1.2 switch=n enabled=y phases=2 Linecode=1P_OH_AL_2/0_Rucina_2

New Line.l(r:p1udm2445-p1ulv702) Units=km Length=0.00542233 bus1=p1udm2445.1.2 bus2=p1ulv702.1.2 switch=n enabled=y phases=2 Linecode=1P_OH_AL_2/0_Rucina_2

New Line.l(r:p1udm2445-p1udt652lv) Units=km Length=0.018862900000000002 bus1=p1udt652lv.1.2 bus2=p1udm2445.1.2 switch=n enabled=y phases=2 Linecode=1P_OH_AL_2/0_Rucina_2

New Line.l(r:p1udm2447-p1ulv11181) Units=km Length=0.00983222 bus1=p1udm2447.1.2 bus2=p1ulv11181.1.2 switch=n enabled=y phases=2 Linecode=1P_OH_AL_2/0_Rucina_2

New Line.l(r:p1udm2447-p1udt652lv) Units=km Length=0.0377233 bus1=p1udt652lv.1.2 bus2=p1udm2447.1.2 switch=n enabled=y phases=2 Linecode=1P_OH_AL_4/0_Zuzara_2

New Line.l(r:p1udm2448-p1ulv703) Units=km Length=0.0260212 bus1=p1udm2448.1.2 bus2=p1ulv703.1.2 switch=n enabled=y phases=2 Linecode=1P_UG_AL_1/0_Brenau_2

New Line.l(r:p1udm2448-p1udt653lv) Units=km Length=0.0399015 bus1=p1udt653lv.1.2 bus2=p1udm2448.1.2 switch=n enabled=y phases=2 Linecode=1P_UG_AL_1/0_Brenau_2

New Line.l(r:p1udm2449-p1ulv1934) Units=km Length=0.00866797 bus1=p1udm2449.1.2 bus2=p1ulv1934.1.2 switch=n enabled=y phases=2 Linecode=1P_UG_AL_1/0_Brenau_2

New Line.l(r:p1udm2450-p1ulv2067) Units=km Length=0.0129022 bus1=p1udm2450.1.2 bus2=p1ulv2067.1.2 switch=n enabled=y phases=2 Linecode=1P_UG_AL_1/0_Brenau_2

New Line.l(r:p1udm2449-p1udm2450) Units=km Length=0.0396415 bus1=p1udm2449.1.2 bus2=p1udm2450.1.2 switch=n enabled=y phases=2 Linecode=1P_UG_AL_1/0_Brenau_2

New Line.l(r:p1udm2449-p1udt653lv) Units=km Length=0.0199407 bus1=p1udt653lv.1.2 bus2=p1udm2449.1.2 switch=n enabled=y phases=2 Linecode=1P_UG_AL_1/0_Brenau_2

New Line.l(r:p1udt661lv-p1ulv712) Units=km Length=0.0172018 bus1=p1udt661lv.1.2 bus2=p1ulv712.1.2 switch=n enabled=y phases=2 Linecode=1P_OH_AL_2/0_Rucina_2

New Line.l(r:p1udm2497-p1ulv726) Units=km Length=0.00795636 bus1=p1udm2497.1.2 bus2=p1ulv726.1.2 switch=n enabled=y phases=2 Linecode=1P_UG_AL_1/0_Brenau_2

New Line.l(r:p1udm2497-p1udt672lv) Units=km Length=0.00931009 bus1=p1udt672lv.1.2 bus2=p1udm2497.1.2 switch=n enabled=y phases=2 Linecode=1P_UG_AL_1/0_Brenau_2

New Line.l(r:p1udm2498-p1ulv4410) Units=km Length=0.0154666 bus1=p1udm2498.1.2 bus2=p1ulv4410.1.2 switch=n enabled=y phases=2 Linecode=1P_UG_AL_1/0_Brenau_2

New Line.l(r:p1udm2498-p1udt672lv) Units=km Length=0.0384651 bus1=p1udt672lv.1.2 bus2=p1udm2498.1.2 switch=n enabled=y phases=2 Linecode=1P_UG_AL_1/0_Brenau_2

New Line.l(r:p1udt673lv-p1ulv9044) Units=km Length=0.0168849 bus1=p1udt673lv.1.2 bus2=p1ulv9044.1.2 switch=n enabled=y phases=2 Linecode=1P_UG_AL_1/0_Brenau_2

New Line.l(r:p1udm2499-p1ulv727) Units=km Length=0.027166100000000002 bus1=p1udm2499.1.2 bus2=p1ulv727.1.2 switch=n enabled=y phases=2 Linecode=1P_UG_AL_4/0_Sweetbriar_2

New Line.l(r:p1udm2499-p1udt673lv) Units=km Length=0.029166600000000004 bus1=p1udt673lv.1.2 bus2=p1udm2499.1.2 switch=n enabled=y phases=2 Linecode=1P_UG_AL_4/0_Sweetbriar_2

New Line.l(r:p1udm2500-p1ulv2344) Units=km Length=0.0200402 bus1=p1udm2500.1.2 bus2=p1ulv2344.1.2 switch=n enabled=y phases=2 Linecode=1P_UG_AL_1/0_Brenau_2

New Line.l(r:p1udm2500-p1udt673lv) Units=km Length=0.0194543 bus1=p1udt673lv.1.2 bus2=p1udm2500.1.2 switch=n enabled=y phases=2 Linecode=1P_UG_AL_1/0_Brenau_2

New Line.l(r:p1udm2502-p1ulv728) Units=km Length=0.0186862 bus1=p1udm2502.1.2 bus2=p1ulv728.1.2 switch=n enabled=y phases=2 Linecode=1P_UG_AL_2/0_Converse_2

New Line.l(r:p1udm2502-p1ulv7885) Units=km Length=0.0166653 bus1=p1udm2502.1.2 bus2=p1ulv7885.1.2 switch=n enabled=y phases=2 Linecode=1P_UG_AL_1/0_Brenau_2

New Line.l(r:p1udm2502-p1udt674lv) Units=km Length=0.00972227 bus1=p1udt674lv.1.2 bus2=p1udm2502.1.2 switch=n enabled=y phases=2 Linecode=1P_UG_AL_4/0_Sweetbriar_2

New Line.l(r:p1udm2503-p1ulv5006) Units=km Length=0.013608 bus1=p1udm2503.1.2 bus2=p1ulv5006.1.2 switch=n enabled=y phases=2 Linecode=1P_UG_AL_1/0_Brenau_2

New Line.l(r:p1udm2503-p1udt674lv) Units=km Length=0.0194443 bus1=p1udt674lv.1.2 bus2=p1udm2503.1.2 switch=n enabled=y phases=2 Linecode=1P_UG_AL_1/0_Brenau_2

New Line.l(r:p1udm2505-p1ulv729) Units=km Length=0.0129197 bus1=p1udm2505.1.2 bus2=p1ulv729.1.2 switch=n enabled=y phases=2 Linecode=1P_UG_AL_1/0_Brenau_2

New Line.l(r:p1udm2505-p1ulv4905) Units=km Length=0.0115719 bus1=p1udm2505.1.2 bus2=p1ulv4905.1.2 switch=n enabled=y phases=2 Linecode=1P_UG_AL_1/0_Brenau_2

New Line.l(r:p1udm2505-p1ulv12156) Units=km Length=0.0157341 bus1=p1udm2505.1.2 bus2=p1ulv12156.1.2 switch=n enabled=y phases=2 Linecode=1P_UG_AL_1/0_Brenau_2

New Line.l(r:p1udm2505-p1udt675lv) Units=km Length=0.00989073 bus1=p1udt675lv.1.2 bus2=p1udm2505.1.2 switch=n enabled=y phases=2 Linecode=1P_UG_AL_4/0_Sweetbriar_2

New Line.l(r:p1udm2507-p1ulv10012) Units=km Length=0.0337504 bus1=p1udm2507.1.2 bus2=p1ulv10012.1.2 switch=n enabled=y phases=2 Linecode=1P_UG_AL_1/0_Brenau_2

New Line.l(r:p1udm2507-p1udt675lv) Units=km Length=0.019801600000000003 bus1=p1udt675lv.1.2 bus2=p1udm2507.1.2 switch=n enabled=y phases=2 Linecode=1P_UG_AL_1/0_Brenau_2

New Line.l(r:p1udt766lv-p1ulv839) Units=km Length=0.00882912 bus1=p1udt766lv.1.2 bus2=p1ulv839.1.2 switch=n enabled=y phases=2 Linecode=1P_OH_AL_2/0_Rucina_2

New Line.l(r:p1udt766lv-p1ulv7998) Units=km Length=0.0139047 bus1=p1udt766lv.1.2 bus2=p1ulv7998.1.2 switch=n enabled=y phases=2 Linecode=1P_OH_AL_2/0_Rucina_2

New Line.l(r:p1udt767lv-p1ulv7509) Units=km Length=0.008365510000000001 bus1=p1udt767lv.1.2 bus2=p1ulv7509.1.2 switch=n enabled=y phases=2 Linecode=1P_OH_AL_2/0_Rucina_2

New Line.l(r:p1udm2850-p1ulv840) Units=km Length=0.00993147 bus1=p1udm2850.1.2 bus2=p1ulv840.1.2 switch=n enabled=y phases=2 Linecode=1P_OH_AL_2/0_Rucina_2

New Line.l(r:p1udm2850-p1udt767lv) Units=km Length=0.0195546 bus1=p1udt767lv.1.2 bus2=p1udm2850.1.2 switch=n enabled=y phases=2 Linecode=1P_OH_AL_2/0_Rucina_2

New Line.l(r:p1udt779lv-p1ulv853) Units=km Length=0.0265408 bus1=p1udt779lv.1.2 bus2=p1ulv853.1.2 switch=n enabled=y phases=2 Linecode=1P_OH_AL_2/0_Rucina_2

New Line.l(r:p1udm2887-p1ulv8365) Units=km Length=0.0120206 bus1=p1udm2887.1.2 bus2=p1ulv8365.1.2 switch=n enabled=y phases=2 Linecode=1P_OH_AL_2/0_Rucina_2

New Line.l(r:p1udm2887-p1udt779lv) Units=km Length=0.0197111 bus1=p1udt779lv.1.2 bus2=p1udm2887.1.2 switch=n enabled=y phases=2 Linecode=1P_OH_AL_2/0_Rucina_2

New Line.l(r:p1udt781lv-p1ulv855) Units=km Length=0.025118200000000004 bus1=p1udt781lv.1.2 bus2=p1ulv855.1.2 switch=n enabled=y phases=2 Linecode=1P_OH_AL_2/0_Rucina_2

New Line.l(r:p1udt781lv-p1ulv6009) Units=km Length=0.032076900000000005 bus1=p1udt781lv.1.2 bus2=p1ulv6009.1.2 switch=n enabled=y phases=2 Linecode=1P_OH_AL_4/0_Zuzara_2

New Line.l(r:p1udt781lv-p1ulv8774) Units=km Length=0.0155808 bus1=p1udt781lv.1.2 bus2=p1ulv8774.1.2 switch=n enabled=y phases=2 Linecode=1P_OH_AL_2/0_Rucina_2

New Line.l(r:p1udm2896-p1ulv9175) Units=km Length=0.0106803 bus1=p1udm2896.1.2 bus2=p1ulv9175.1.2 switch=n enabled=y phases=2 Linecode=1P_OH_AL_2/0_Rucina_2

New Line.l(r:p1udm2896-p1ulv9786) Units=km Length=0.0109914 bus1=p1udm2896.1.2 bus2=p1ulv9786.1.2 switch=n enabled=y phases=2 Linecode=1P_OH_AL_2/0_Rucina_2

New Line.l(r:p1udm2896-p1udt781lv) Units=km Length=0.0183501 bus1=p1udt781lv.1.2 bus2=p1udm2896.1.2 switch=n enabled=y phases=2 Linecode=1P_OH_AL_2/0_Rucina_2

New Line.l(r:p1udt782lv-p1ulv1950) Units=km Length=0.0426629 bus1=p1udt782lv.1.2 bus2=p1ulv1950.1.2 switch=n enabled=y phases=2 Linecode=1P_UG_AL_1/0_Brenau_2

New Line.l(r:p1udt782lv-p1ulv7770) Units=km Length=0.015027500000000001 bus1=p1udt782lv.1.2 bus2=p1ulv7770.1.2 switch=n enabled=y phases=2 Linecode=1P_UG_AL_1/0_Brenau_2

New Line.l(r:p1udm2900-p1ulv2345) Units=km Length=0.013947 bus1=p1udm2900.1.2 bus2=p1ulv2345.1.2 switch=n enabled=y phases=2 Linecode=1P_UG_AL_1/0_Brenau_2

New Line.l(r:p1udm2900-p1ulv5888) Units=km Length=0.014301000000000001 bus1=p1udm2900.1.2 bus2=p1ulv5888.1.2 switch=n enabled=y phases=2 Linecode=1P_UG_AL_1/0_Brenau_2

New Line.l(r:p1udm2903-p1ulv6390) Units=km Length=0.013838 bus1=p1udm2903.1.2 bus2=p1ulv6390.1.2 switch=n enabled=y phases=2 Linecode=1P_UG_AL_1/0_Brenau_2

New Line.l(r:p1udm2900-p1udm2903) Units=km Length=0.009682500000000002 bus1=p1udm2900.1.2 bus2=p1udm2903.1.2 switch=n enabled=y phases=2 Linecode=1P_UG_AL_1/0_Brenau_2

New Line.l(r:p1udm2900-p1udt782lv) Units=km Length=0.009682280000000001 bus1=p1udt782lv.1.2 bus2=p1udm2900.1.2 switch=n enabled=y phases=2 Linecode=1P_UG_AL_4/0_Sweetbriar_2

New Line.l(r:p1udm2901-p1ulv4649) Units=km Length=0.0136202 bus1=p1udm2901.1.2 bus2=p1ulv4649.1.2 switch=n enabled=y phases=2 Linecode=1P_UG_AL_2/0_Converse_2

New Line.l(r:p1udm2905-p1ulv8516) Units=km Length=0.0189527 bus1=p1udm2905.1.2 bus2=p1ulv8516.1.2 switch=n enabled=y phases=2 Linecode=1P_UG_AL_1/0_Brenau_2

New Line.l(r:p1udm2898-p1ulv856) Units=km Length=0.0493351 bus1=p1udm2898.1.2 bus2=p1ulv856.1.2 switch=n enabled=y phases=2 Linecode=1P_UG_AL_1/0_Brenau_2

New Line.l(r:p1udm2898-p1udm2905) Units=km Length=0.009682280000000001 bus1=p1udm2905.1.2 bus2=p1udm2898.1.2 switch=n enabled=y phases=2 Linecode=1P_UG_AL_1/0_Brenau_2

New Line.l(r:p1udm2901-p1udm2905) Units=km Length=0.009682280000000001 bus1=p1udm2901.1.2 bus2=p1udm2905.1.2 switch=n enabled=y phases=2 Linecode=1P_UG_AL_1/0_Brenau_2

New Line.l(r:p1udm2901-p1udt782lv) Units=km Length=0.00969228 bus1=p1udt782lv.1.2 bus2=p1udm2901.1.2 switch=n enabled=y phases=2 Linecode=1P_UG_AL_4/0_Sweetbriar_2

New Line.l(r:p1udm3213-p1ulv2077) Units=km Length=0.00871737 bus1=p1udm3213.1.2 bus2=p1ulv2077.1.2 switch=n enabled=y phases=2 Linecode=1P_UG_AL_1/0_Brenau_2

New Line.l(r:p1udm3212-p1ulv950) Units=km Length=0.0135595 bus1=p1udm3212.1.2 bus2=p1ulv950.1.2 switch=n enabled=y phases=2 Linecode=1P_UG_AL_1/0_Brenau_2

New Line.l(r:p1udm3212-p1udm3213) Units=km Length=0.00668147 bus1=p1udm3213.1.2 bus2=p1udm3212.1.2 switch=n enabled=y phases=2 Linecode=1P_UG_AL_1/0_Brenau_2

New Line.l(r:p1udm3213-p1udt863lv) Units=km Length=0.0161344 bus1=p1udt863lv.1.2 bus2=p1udm3213.1.2 switch=n enabled=y phases=2 Linecode=1P_UG_AL_4/0_Sweetbriar_2

New Line.l(r:p1udm3214-p1ulv5765) Units=km Length=0.0105396 bus1=p1udm3214.1.2 bus2=p1ulv5765.1.2 switch=n enabled=y phases=2 Linecode=1P_UG_AL_4/0_Sweetbriar_2

New Line.l(r:p1udm3215-p1ulv9769) Units=km Length=0.010203900000000002 bus1=p1udm3215.1.2 bus2=p1ulv9769.1.2 switch=n enabled=y phases=2 Linecode=1P_UG_AL_1/0_Brenau_2

New Line.l(r:p1udm3214-p1udm3215) Units=km Length=0.00946256 bus1=p1udm3214.1.2 bus2=p1udm3215.1.2 switch=n enabled=y phases=2 Linecode=1P_UG_AL_1/0_Brenau_2

New Line.l(r:p1udm3214-p1udt863lv) Units=km Length=0.0189149 bus1=p1udt863lv.1.2 bus2=p1udm3214.1.2 switch=n enabled=y phases=2 Linecode=1P_UG_AL_4/0_Sweetbriar_2

New Line.l(r:p1udm3218-p1ulv957) Units=km Length=0.0154833 bus1=p1udm3218.1.2 bus2=p1ulv957.1.2 switch=n enabled=y phases=2 Linecode=1P_UG_AL_1/0_Brenau_2

New Line.l(r:p1udm3218-p1udt866lv) Units=km Length=0.00920107 bus1=p1udt866lv.1.2 bus2=p1udm3218.1.2 switch=n enabled=y phases=2 Linecode=1P_UG_AL_1/0_Brenau_2

New Line.l(r:p1udm3219-p1ulv10363) Units=km Length=0.0144627 bus1=p1udm3219.1.2 bus2=p1ulv10363.1.2 switch=n enabled=y phases=2 Linecode=1P_UG_AL_4/0_Sweetbriar_2

New Line.l(r:p1udm3219-p1udt866lv) Units=km Length=0.0474638 bus1=p1udt866lv.1.2 bus2=p1udm3219.1.2 switch=n enabled=y phases=2 Linecode=1P_UG_AL_4/0_Sweetbriar_2

New Line.l(r:p1udt867lv-p1ulv958) Units=km Length=0.0194599 bus1=p1udt867lv.1.2 bus2=p1ulv958.1.2 switch=n enabled=y phases=2 Linecode=1P_OH_AL_2/0_Rucina_2

New Line.l(r:p1udm3462-p1ulv1061) Units=km Length=0.0103932 bus1=p1udm3462.1.2 bus2=p1ulv1061.1.2 switch=n enabled=y phases=2 Linecode=1P_OH_AL_2/0_Rucina_2

New Line.l(r:p1udm3462-p1ulv3430) Units=km Length=0.0176513 bus1=p1udm3462.1.2 bus2=p1ulv3430.1.2 switch=n enabled=y phases=2 Linecode=1P_OH_AL_2/0_Rucina_2

New Line.l(r:p1udm3464-p1ulv4886) Units=km Length=0.0177584 bus1=p1udm3464.1.2 bus2=p1ulv4886.1.2 switch=n enabled=y phases=2 Linecode=1P_OH_AL_2/0_Rucina_2

New Line.l(r:p1udm3462-p1udm3464) Units=km Length=0.0193818 bus1=p1udm3462.1.2 bus2=p1udm3464.1.2 switch=n enabled=y phases=2 Linecode=1P_OH_AL_2/0_Rucina_2

New Line.l(r:p1udm3462-p1udt949lv) Units=km Length=0.019391500000000002 bus1=p1udt949lv.1.2 bus2=p1udm3462.1.2 switch=n enabled=y phases=2 Linecode=1P_OH_AL_2/0_Rucina_2

New Line.l(r:p1udm3465-p1ulv8005) Units=km Length=0.0112401 bus1=p1udm3465.1.2 bus2=p1ulv8005.1.2 switch=n enabled=y phases=2 Linecode=1P_OH_AL_2/0_Rucina_2

New Line.l(r:p1udm3465-p1udt949lv) Units=km Length=0.0945029 bus1=p1udt949lv.1.2 bus2=p1udm3465.1.2 switch=n enabled=y phases=2 Linecode=1P_OH_AL_4/0_Zuzara_2

New Line.l(r:p1udt950lv-p1ulv1062) Units=km Length=0.0141881 bus1=p1udt950lv.1.2 bus2=p1ulv1062.1.2 switch=n enabled=y phases=2 Linecode=1P_OH_AL_2/0_Rucina_2

New Line.l(r:p1udt950lv-p1ulv11910) Units=km Length=0.0102274 bus1=p1udt950lv.1.2 bus2=p1ulv11910.1.2 switch=n enabled=y phases=2 Linecode=1P_OH_AL_2/0_Rucina_2

New Line.l(r:p1udm3467-p1ulv3561) Units=km Length=0.008910780000000002 bus1=p1udm3467.1.2 bus2=p1ulv3561.1.2 switch=n enabled=y phases=2 Linecode=1P_OH_AL_2/0_Rucina_2

New Line.l(r:p1udm3467-p1udt950lv) Units=km Length=0.0193222 bus1=p1udt950lv.1.2 bus2=p1udm3467.1.2 switch=n enabled=y phases=2 Linecode=1P_OH_AL_2/0_Rucina_2

New Line.l(r:p1udt963lv-p1ulv1076) Units=km Length=0.0101424 bus1=p1udt963lv.1.2 bus2=p1ulv1076.1.2 switch=n enabled=y phases=2 Linecode=1P_OH_AL_2/0_Rucina_2

New Line.l(r:p1udm3519-p1ulv2714) Units=km Length=0.006511600000000001 bus1=p1udm3519.1.2 bus2=p1ulv2714.1.2 switch=n enabled=y phases=2 Linecode=1P_OH_AL_2/0_Rucina_2

New Line.l(r:p1udm3519-p1udt963lv) Units=km Length=0.0561277 bus1=p1udt963lv.1.2 bus2=p1udm3519.1.2 switch=n enabled=y phases=2 Linecode=1P_OH_AL_4/0_Zuzara_2

New Line.l(r:p1udm3520-p1ulv7881) Units=km Length=0.017557700000000002 bus1=p1udm3520.1.2 bus2=p1ulv7881.1.2 switch=n enabled=y phases=2 Linecode=1P_OH_AL_2/0_Rucina_2

New Line.l(r:p1udm3520-p1udt963lv) Units=km Length=0.0194418 bus1=p1udt963lv.1.2 bus2=p1udm3520.1.2 switch=n enabled=y phases=2 Linecode=1P_OH_AL_2/0_Rucina_2

New Line.l(r:p1udt964lv-p1ulv1077) Units=km Length=0.0178527 bus1=p1udt964lv.1.2 bus2=p1ulv1077.1.2 switch=n enabled=y phases=2 Linecode=1P_OH_AL_2/0_Rucina_2

New Line.l(r:p1udm3522-p1ulv8631) Units=km Length=0.0148354 bus1=p1udm3522.1.2 bus2=p1ulv8631.1.2 switch=n enabled=y phases=2 Linecode=1P_OH_AL_2/0_Rucina_2

New Line.l(r:p1udm3522-p1udt964lv) Units=km Length=0.0199965 bus1=p1udt964lv.1.2 bus2=p1udm3522.1.2 switch=n enabled=y phases=2 Linecode=1P_OH_AL_2/0_Rucina_2

New Line.l(r:p1udt966lv-p1ulv1079) Units=km Length=0.0101971 bus1=p1udt966lv.1.2 bus2=p1ulv1079.1.2 switch=n enabled=y phases=2 Linecode=1P_UG_AL_1/0_Brenau_2

New Line.l(r:p1udm3527-p1ulv1833) Units=km Length=0.00921811 bus1=p1udm3527.1.2 bus2=p1ulv1833.1.2 switch=n enabled=y phases=2 Linecode=1P_UG_AL_2/0_Converse_2

New Line.l(r:p1udm3527-p1udt966lv) Units=km Length=0.0187496 bus1=p1udt966lv.1.2 bus2=p1udm3527.1.2 switch=n enabled=y phases=2 Linecode=1P_UG_AL_2/0_Converse_2

New Line.l(r:p1udm3528-p1ulv5452) Units=km Length=0.0142502 bus1=p1udm3528.1.2 bus2=p1ulv5452.1.2 switch=n enabled=y phases=2 Linecode=1P_UG_AL_1/0_Brenau_2

New Line.l(r:p1udm3529-p1ulv8020) Units=km Length=0.0121803 bus1=p1udm3529.1.2 bus2=p1ulv8020.1.2 switch=n enabled=y phases=2 Linecode=1P_UG_AL_1/0_Brenau_2

New Line.l(r:p1udm3528-p1udm3529) Units=km Length=0.0187496 bus1=p1udm3528.1.2 bus2=p1udm3529.1.2 switch=n enabled=y phases=2 Linecode=1P_UG_AL_1/0_Brenau_2

New Line.l(r:p1udm3528-p1udt966lv) Units=km Length=0.0093748 bus1=p1udt966lv.1.2 bus2=p1udm3528.1.2 switch=n enabled=y phases=2 Linecode=1P_UG_AL_2/0_Converse_2

New Line.l(r:p1udt967lv-p1ulv1080) Units=km Length=0.0186403 bus1=p1udt967lv.1.2 bus2=p1ulv1080.1.2 switch=n enabled=y phases=2 Linecode=1P_OH_AL_2/0_Rucina_2

New Line.l(r:p1udt967lv-p1ulv2226) Units=km Length=0.0164181 bus1=p1udt967lv.1.2 bus2=p1ulv2226.1.2 switch=n enabled=y phases=2 Linecode=1P_OH_AL_2/0_Rucina_2

New Line.l(r:p1udm3532-p1ulv3442) Units=km Length=0.0218922 bus1=p1udm3532.1.2 bus2=p1ulv3442.1.2 switch=n enabled=y phases=2 Linecode=1P_OH_AL_2/0_Rucina_2

New Line.l(r:p1udm3532-p1udt967lv) Units=km Length=0.0183701 bus1=p1udt967lv.1.2 bus2=p1udm3532.1.2 switch=n enabled=y phases=2 Linecode=1P_OH_AL_2/0_Rucina_2

New Line.l(r:p1udm3533-p1ulv10011) Units=km Length=0.00839222 bus1=p1udm3533.1.2 bus2=p1ulv10011.1.2 switch=n enabled=y phases=2 Linecode=1P_OH_AL_2/0_Rucina_2

New Line.l(r:p1udm3533-p1udt967lv) Units=km Length=0.05641220000000001 bus1=p1udt967lv.1.2 bus2=p1udm3533.1.2 switch=n enabled=y phases=2 Linecode=1P_OH_AL_4/0_Zuzara_2

New Line.l(r:p1udm3776-p1ulv1179) Units=km Length=0.014655700000000002 bus1=p1udm3776.1.2 bus2=p1ulv1179.1.2 switch=n enabled=y phases=2 Linecode=1P_OH_AL_2/0_Rucina_2

New Line.l(r:p1udm3776-p1udt1037lv) Units=km Length=0.0383538 bus1=p1udt1037lv.1.2 bus2=p1udm3776.1.2 switch=n enabled=y phases=2 Linecode=1P_OH_AL_4/0_Zuzara_2

New Line.l(r:p1udm3777-p1ulv1440) Units=km Length=0.0377529 bus1=p1udm3777.1.2 bus2=p1ulv1440.1.2 switch=n enabled=y phases=2 Linecode=1P_OH_AL_4/0_Zuzara_2

New Line.l(r:p1udm3777-p1udt1037lv) Units=km Length=0.0191817 bus1=p1udt1037lv.1.2 bus2=p1udm3777.1.2 switch=n enabled=y phases=2 Linecode=1P_OH_AL_2/0_Rucina_2

New Line.l(r:p1udt1038lv-p1ulv1180) Units=km Length=0.0199076 bus1=p1udt1038lv.1.2 bus2=p1ulv1180.1.2 switch=n enabled=y phases=2 Linecode=1P_UG_AL_2/0_Converse_2

New Line.l(r:p1udt1038lv-p1ulv3081) Units=km Length=0.016477900000000004 bus1=p1udt1038lv.1.2 bus2=p1ulv3081.1.2 switch=n enabled=y phases=2 Linecode=1P_UG_AL_1/0_Brenau_2

New Line.l(r:p1udm3780-p1ulv4753) Units=km Length=0.0265898 bus1=p1udm3780.1.2 bus2=p1ulv4753.1.2 switch=n enabled=y phases=2 Linecode=1P_UG_AL_1/0_Brenau_2

New Line.l(r:p1udm3780-p1udt1038lv) Units=km Length=0.029151400000000004 bus1=p1udt1038lv.1.2 bus2=p1udm3780.1.2 switch=n enabled=y phases=2 Linecode=1P_UG_AL_1/0_Brenau_2

New Line.l(r:p1udm3781-p1ulv9398) Units=km Length=0.016051 bus1=p1udm3781.1.2 bus2=p1ulv9398.1.2 switch=n enabled=y phases=2 Linecode=1P_UG_AL_1/0_Brenau_2

New Line.l(r:p1udm3781-p1udt1038lv) Units=km Length=0.0388621 bus1=p1udt1038lv.1.2 bus2=p1udm3781.1.2 switch=n enabled=y phases=2 Linecode=1P_UG_AL_1/0_Brenau_2

New Line.l(r:p1udt1044lv-p1ulv1193) Units=km Length=0.0161307 bus1=p1udt1044lv.1.2 bus2=p1ulv1193.1.2 switch=n enabled=y phases=2 Linecode=1P_OH_AL_2/0_Rucina_2

New Line.l(r:p1udt1132lv-p1ulv6635) Units=km Length=0.0254701 bus1=p1udt1132lv.1.2 bus2=p1ulv6635.1.2 switch=n enabled=y phases=2 Linecode=1P_OH_AL_2/0_Rucina_2

New Line.l(r:p1udm4069-p1ulv1309) Units=km Length=0.00998852 bus1=p1udm4069.1.2 bus2=p1ulv1309.1.2 switch=n enabled=y phases=2 Linecode=1P_OH_AL_2/0_Rucina_2

New Line.l(r:p1udm4069-p1udt1132lv) Units=km Length=0.0197111 bus1=p1udt1132lv.1.2 bus2=p1udm4069.1.2 switch=n enabled=y phases=2 Linecode=1P_OH_AL_2/0_Rucina_2

New Line.l(r:p1udt1133lv-p1ulv1310) Units=km Length=0.0145631 bus1=p1udt1133lv.1.2 bus2=p1ulv1310.1.2 switch=n enabled=y phases=2 Linecode=1P_OH_AL_2/0_Rucina_2

New Line.l(r:p1udt1144lv-p1ulv1324) Units=km Length=0.0200624 bus1=p1udt1144lv.1.2 bus2=p1ulv1324.1.2 switch=n enabled=y phases=2 Linecode=1P_OH_AL_2/0_Rucina_2

New Line.l(r:p1udm4102-p1ulv11084) Units=km Length=0.0077576500000000005 bus1=p1udm4102.1.2 bus2=p1ulv11084.1.2 switch=n enabled=y phases=2 Linecode=1P_OH_AL_2/0_Rucina_2

New Line.l(r:p1udm4102-p1udt1144lv) Units=km Length=0.0198349 bus1=p1udt1144lv.1.2 bus2=p1udm4102.1.2 switch=n enabled=y phases=2 Linecode=1P_OH_AL_2/0_Rucina_2

New Line.l(r:p1udt1145lv-p1ulv1325) Units=km Length=0.0195152 bus1=p1udt1145lv.1.2 bus2=p1ulv1325.1.2 switch=n enabled=y phases=2 Linecode=1P_OH_AL_2/0_Rucina_2

New Line.l(r:p1udt1226lv-p1ulv1441) Units=km Length=0.0114174 bus1=p1udt1226lv.1.2 bus2=p1ulv1441.1.2 switch=n enabled=y phases=2 Linecode=1P_OH_AL_2/0_Rucina_2

New Line.l(r:p1udt1239lv-p1ulv5115) Units=km Length=0.016726 bus1=p1udt1239lv.1.2 bus2=p1ulv5115.1.2 switch=n enabled=y phases=2 Linecode=1P_UG_AL_1/0_Brenau_2

New Line.l(r:p1udm4417-p1ulv1458) Units=km Length=0.0172407 bus1=p1udm4417.1.2 bus2=p1ulv1458.1.2 switch=n enabled=y phases=2 Linecode=1P_UG_AL_2/0_Converse_2

New Line.l(r:p1udm4420-p1ulv7769) Units=km Length=0.00873401 bus1=p1udm4420.1.2 bus2=p1ulv7769.1.2 switch=n enabled=y phases=2 Linecode=1P_UG_AL_1/0_Brenau_2

New Line.l(r:p1udm4417-p1udm4420) Units=km Length=0.0114553 bus1=p1udm4417.1.2 bus2=p1udm4420.1.2 switch=n enabled=y phases=2 Linecode=1P_UG_AL_1/0_Brenau_2

New Line.l(r:p1udm4417-p1udt1239lv) Units=km Length=0.018322100000000004 bus1=p1udt1239lv.1.2 bus2=p1udm4417.1.2 switch=n enabled=y phases=2 Linecode=1P_UG_AL_4/0_Sweetbriar_2

New Line.l(r:p1udm4418-p1ulv4190) Units=km Length=0.0161827 bus1=p1udm4418.1.2 bus2=p1ulv4190.1.2 switch=n enabled=y phases=2 Linecode=1P_UG_AL_1/0_Brenau_2

New Line.l(r:p1udm4418-p1udt1239lv) Units=km Length=0.018412100000000004 bus1=p1udt1239lv.1.2 bus2=p1udm4418.1.2 switch=n enabled=y phases=2 Linecode=1P_UG_AL_1/0_Brenau_2

New Line.l(r:p1udt1299lv-p1ulv1541) Units=km Length=0.0104469 bus1=p1udt1299lv.1.2 bus2=p1ulv1541.1.2 switch=n enabled=y phases=2 Linecode=1P_UG_AL_4/0_Sweetbriar_2

New Line.l(r:p1udt1313lv-p1ulv1558) Units=km Length=0.00917693 bus1=p1udt1313lv.1.2 bus2=p1ulv1558.1.2 switch=n enabled=y phases=2 Linecode=1P_OH_AL_2/0_Rucina_2

New Line.l(r:p1udt1313lv-p1ulv2445) Units=km Length=0.013958 bus1=p1udt1313lv.1.2 bus2=p1ulv2445.1.2 switch=n enabled=y phases=2 Linecode=1P_OH_AL_2/0_Rucina_2

New Line.l(r:p1udm4680-p1ulv4991) Units=km Length=0.013005 bus1=p1udm4680.1.2 bus2=p1ulv4991.1.2 switch=n enabled=y phases=2 Linecode=1P_OH_AL_2/0_Rucina_2

New Line.l(r:p1udm4680-p1udt1313lv) Units=km Length=0.0181994 bus1=p1udt1313lv.1.2 bus2=p1udm4680.1.2 switch=n enabled=y phases=2 Linecode=1P_OH_AL_2/0_Rucina_2

New Line.l(r:p1udt1320lv-p1ulv10364) Units=km Length=0.0154105 bus1=p1udt1320lv.1.2 bus2=p1ulv10364.1.2 switch=n enabled=y phases=2 Linecode=1P_UG_AL_1/0_Brenau_2

New Line.l(r:p1udm4696-p1ulv1573) Units=km Length=0.0116529 bus1=p1udm4696.1.2 bus2=p1ulv1573.1.2 switch=n enabled=y phases=2 Linecode=1P_UG_AL_1/0_Brenau_2

New Line.l(r:p1udm4696-p1udt1320lv) Units=km Length=0.00983001 bus1=p1udt1320lv.1.2 bus2=p1udm4696.1.2 switch=n enabled=y phases=2 Linecode=1P_UG_AL_1/0_Brenau_2

New Line.l(r:p1udm4883-p1ulv1657) Units=km Length=0.028764900000000003 bus1=p1udm4883.1.2 bus2=p1ulv1657.1.2 switch=n enabled=y phases=2 Linecode=1P_UG_AL_1/0_Brenau_2

New Line.l(r:p1udm4883-p1udt1377lv) Units=km Length=0.0194387 bus1=p1udt1377lv.1.2 bus2=p1udm4883.1.2 switch=n enabled=y phases=2 Linecode=1P_UG_AL_1/0_Brenau_2

New Line.l(r:p1udm4884-p1ulv1932) Units=km Length=0.018615700000000002 bus1=p1udm4884.1.2 bus2=p1ulv1932.1.2 switch=n enabled=y phases=2 Linecode=1P_UG_AL_1/0_Brenau_2

New Line.l(r:p1udm4884-p1udt1377lv) Units=km Length=0.0194362 bus1=p1udt1377lv.1.2 bus2=p1udm4884.1.2 switch=n enabled=y phases=2 Linecode=1P_UG_AL_1/0_Brenau_2

New Line.l(r:p1udm4885-p1ulv1658) Units=km Length=0.0126304 bus1=p1udm4885.1.2 bus2=p1ulv1658.1.2 switch=n enabled=y phases=2 Linecode=1P_OH_AL_2/0_Rucina_2

New Line.l(r:p1udm4885-p1udt1378lv) Units=km Length=0.0764644 bus1=p1udt1378lv.1.2 bus2=p1udm4885.1.2 switch=n enabled=y phases=2 Linecode=1P_OH_AL_4/0_Zuzara_2

New Line.l(r:p1udm4886-p1ulv4982) Units=km Length=0.0251382 bus1=p1udm4886.1.2 bus2=p1ulv4982.1.2 switch=n enabled=y phases=2 Linecode=1P_OH_AL_2/0_Rucina_2

New Line.l(r:p1udm4886-p1udt1378lv) Units=km Length=0.01853 bus1=p1udt1378lv.1.2 bus2=p1udm4886.1.2 switch=n enabled=y phases=2 Linecode=1P_OH_AL_2/0_Rucina_2

New Line.l(r:p1udt1379lv-p1ulv1659) Units=km Length=0.0187236 bus1=p1udt1379lv.1.2 bus2=p1ulv1659.1.2 switch=n enabled=y phases=2 Linecode=1P_OH_AL_2/0_Rucina_2

New Line.l(r:p1udm4892-p1ulv1661) Units=km Length=0.0151477 bus1=p1udm4892.1.2 bus2=p1ulv1661.1.2 switch=n enabled=y phases=2 Linecode=1P_OH_AL_2/0_Rucina_2

New Line.l(r:p1udm4892-p1udt1381lv) Units=km Length=0.0397678 bus1=p1udt1381lv.1.2 bus2=p1udm4892.1.2 switch=n enabled=y phases=2 Linecode=1P_OH_AL_4/0_Zuzara_2

New Line.l(r:p1udm4893-p1ulv10229) Units=km Length=0.018522000000000004 bus1=p1udm4893.1.2 bus2=p1ulv10229.1.2 switch=n enabled=y phases=2 Linecode=1P_OH_AL_2/0_Rucina_2

New Line.l(r:p1udm4893-p1udt1381lv) Units=km Length=0.0388107 bus1=p1udt1381lv.1.2 bus2=p1udm4893.1.2 switch=n enabled=y phases=2 Linecode=1P_OH_AL_4/0_Zuzara_2

New Line.l(r:p1udm4926-p1ulv1684) Units=km Length=0.0164092 bus1=p1udm4926.1.2 bus2=p1ulv1684.1.2 switch=n enabled=y phases=2 Linecode=1P_UG_AL_1/0_Brenau_2

New Line.l(r:p1udm4926-p1udt1394lv) Units=km Length=0.0194554 bus1=p1udt1394lv.1.2 bus2=p1udm4926.1.2 switch=n enabled=y phases=2 Linecode=1P_UG_AL_1/0_Brenau_2

New Line.l(r:p1udm4927-p1ulv9416) Units=km Length=0.0137698 bus1=p1udm4927.1.2 bus2=p1ulv9416.1.2 switch=n enabled=y phases=2 Linecode=1P_UG_AL_1/0_Brenau_2

New Line.l(r:p1udm4927-p1udt1394lv) Units=km Length=0.0442547 bus1=p1udt1394lv.1.2 bus2=p1udm4927.1.2 switch=n enabled=y phases=2 Linecode=1P_UG_AL_1/0_Brenau_2

New Line.l(r:p1udt1396lv-p1ulv3095) Units=km Length=0.0169175 bus1=p1udt1396lv.1.2 bus2=p1ulv3095.1.2 switch=n enabled=y phases=2 Linecode=1P_UG_AL_1/0_Brenau_2

New Line.l(r:p1udm4934-p1ulv1687) Units=km Length=0.006375950000000001 bus1=p1udm4934.1.2 bus2=p1ulv1687.1.2 switch=n enabled=y phases=2 Linecode=1P_UG_AL_1/0_Brenau_2

New Line.l(r:p1udm4936-p1ulv6126) Units=km Length=0.0235325 bus1=p1udm4936.1.2 bus2=p1ulv6126.1.2 switch=n enabled=y phases=2 Linecode=1P_UG_AL_1/0_Brenau_2

New Line.l(r:p1udm4934-p1udm4936) Units=km Length=0.0093748 bus1=p1udm4934.1.2 bus2=p1udm4936.1.2 switch=n enabled=y phases=2 Linecode=1P_UG_AL_1/0_Brenau_2

New Line.l(r:p1udm4934-p1udt1396lv) Units=km Length=0.00983018 bus1=p1udt1396lv.1.2 bus2=p1udm4934.1.2 switch=n enabled=y phases=2 Linecode=1P_UG_AL_1/0_Brenau_2

New Line.l(r:p1udm4937-p1ulv11446) Units=km Length=0.013941 bus1=p1udm4937.1.2 bus2=p1ulv11446.1.2 switch=n enabled=y phases=2 Linecode=1P_UG_AL_1/0_Brenau_2

New Line.l(r:p1udm4937-p1udt1396lv) Units=km Length=0.0196604 bus1=p1udt1396lv.1.2 bus2=p1udm4937.1.2 switch=n enabled=y phases=2 Linecode=1P_UG_AL_1/0_Brenau_2

New Line.l(r:p1udt1487lv-p1ulv1815) Units=km Length=0.015056 bus1=p1udt1487lv.1.2 bus2=p1ulv1815.1.2 switch=n enabled=y phases=2 Linecode=1P_OH_AL_2/0_Rucina_2

New Line.l(r:p1udt1487lv-p1ulv4626) Units=km Length=0.017791 bus1=p1udt1487lv.1.2 bus2=p1ulv4626.1.2 switch=n enabled=y phases=2 Linecode=1P_OH_AL_2/0_Rucina_2

New Line.l(r:p1udm5264-p1ulv4281) Units=km Length=0.0143108 bus1=p1udm5264.1.2 bus2=p1ulv4281.1.2 switch=n enabled=y phases=2 Linecode=1P_OH_AL_2/0_Rucina_2

New Line.l(r:p1udm5264-p1udt1487lv) Units=km Length=0.01935 bus1=p1udt1487lv.1.2 bus2=p1udm5264.1.2 switch=n enabled=y phases=2 Linecode=1P_OH_AL_2/0_Rucina_2

New Line.l(r:p1udm5283-p1ulv10850) Units=km Length=0.0152688 bus1=p1udm5283.1.2 bus2=p1ulv10850.1.2 switch=n enabled=y phases=2 Linecode=1P_UG_AL_1/0_Brenau_2

New Line.l(r:p1udm5284-p1ulv11797) Units=km Length=0.00682256 bus1=p1udm5284.1.2 bus2=p1ulv11797.1.2 switch=n enabled=y phases=2 Linecode=1P_UG_AL_1/0_Brenau_2

New Line.l(r:p1udm5283-p1udm5284) Units=km Length=0.00993008 bus1=p1udm5283.1.2 bus2=p1udm5284.1.2 switch=n enabled=y phases=2 Linecode=1P_UG_AL_1/0_Brenau_2

New Line.l(r:p1udm5283-p1udt1491lv) Units=km Length=0.00994008 bus1=p1udt1491lv.1.2 bus2=p1udm5283.1.2 switch=n enabled=y phases=2 Linecode=1P_UG_AL_2/0_Converse_2

New Line.l(r:p1udm5285-p1ulv12267) Units=km Length=0.0162429 bus1=p1udm5285.1.2 bus2=p1ulv12267.1.2 switch=n enabled=y phases=2 Linecode=1P_UG_AL_1/0_Brenau_2

New Line.l(r:p1udm5281-p1ulv1821) Units=km Length=0.0150438 bus1=p1udm5281.1.2 bus2=p1ulv1821.1.2 switch=n enabled=y phases=2 Linecode=1P_UG_AL_1/0_Brenau_2

New Line.l(r:p1udm5281-p1ulv5874) Units=km Length=0.0196013 bus1=p1udm5281.1.2 bus2=p1ulv5874.1.2 switch=n enabled=y phases=2 Linecode=1P_UG_AL_1/0_Brenau_2

New Line.l(r:p1udm5281-p1udm5285) Units=km Length=0.0166312 bus1=p1udm5285.1.2 bus2=p1udm5281.1.2 switch=n enabled=y phases=2 Linecode=1P_UG_AL_2/0_Converse_2

New Line.l(r:p1udm5285-p1udt1491lv) Units=km Length=0.00993008 bus1=p1udt1491lv.1.2 bus2=p1udm5285.1.2 switch=n enabled=y phases=2 Linecode=1P_UG_AL_4/0_Sweetbriar_2

New Line.l(r:p1udt1498lv-p1ulv3439) Units=km Length=0.011309300000000001 bus1=p1udt1498lv.1.2 bus2=p1ulv3439.1.2 switch=n enabled=y phases=2 Linecode=1P_UG_AL_1/0_Brenau_2

New Line.l(r:p1udm5315-p1ulv1832) Units=km Length=0.016394 bus1=p1udm5315.1.2 bus2=p1ulv1832.1.2 switch=n enabled=y phases=2 Linecode=1P_UG_AL_1/0_Brenau_2

New Line.l(r:p1udm5315-p1udt1498lv) Units=km Length=0.00979086 bus1=p1udt1498lv.1.2 bus2=p1udm5315.1.2 switch=n enabled=y phases=2 Linecode=1P_UG_AL_1/0_Brenau_2

New Line.l(r:p1udt1500lv-p1ulv3582) Units=km Length=0.0150513 bus1=p1udt1500lv.1.2 bus2=p1ulv3582.1.2 switch=n enabled=y phases=2 Linecode=1P_UG_AL_1/0_Brenau_2

New Line.l(r:p1udm5318-p1ulv1835) Units=km Length=0.014114400000000001 bus1=p1udm5318.1.2 bus2=p1ulv1835.1.2 switch=n enabled=y phases=2 Linecode=1P_UG_AL_1/0_Brenau_2

New Line.l(r:p1udm5318-p1udt1500lv) Units=km Length=0.0193646 bus1=p1udt1500lv.1.2 bus2=p1udm5318.1.2 switch=n enabled=y phases=2 Linecode=1P_UG_AL_1/0_Brenau_2

New Line.l(r:p1udm5320-p1ulv6517) Units=km Length=0.0161393 bus1=p1udm5320.1.2 bus2=p1ulv6517.1.2 switch=n enabled=y phases=2 Linecode=1P_UG_AL_1/0_Brenau_2

New Line.l(r:p1udm5320-p1udt1500lv) Units=km Length=0.009682280000000001 bus1=p1udt1500lv.1.2 bus2=p1udm5320.1.2 switch=n enabled=y phases=2 Linecode=1P_UG_AL_1/0_Brenau_2

New Line.l(r:p1udm5508-p1ulv1933) Units=km Length=0.0159803 bus1=p1udm5508.1.2 bus2=p1ulv1933.1.2 switch=n enabled=y phases=2 Linecode=1P_OH_AL_2/0_Rucina_2

New Line.l(r:p1udm5508-p1udt1561lv) Units=km Length=0.0385696 bus1=p1udt1561lv.1.2 bus2=p1udm5508.1.2 switch=n enabled=y phases=2 Linecode=1P_OH_AL_4/0_Zuzara_2

New Line.l(r:p1udm5509-p1ulv6364) Units=km Length=0.0152589 bus1=p1udm5509.1.2 bus2=p1ulv6364.1.2 switch=n enabled=y phases=2 Linecode=1P_OH_AL_2/0_Rucina_2

New Line.l(r:p1udm5509-p1udt1561lv) Units=km Length=0.0569287 bus1=p1udt1561lv.1.2 bus2=p1udm5509.1.2 switch=n enabled=y phases=2 Linecode=1P_OH_AL_4/0_Zuzara_2

New Line.l(r:p1udm5510-p1ulv1935) Units=km Length=0.0128344 bus1=p1udm5510.1.2 bus2=p1ulv1935.1.2 switch=n enabled=y phases=2 Linecode=1P_OH_AL_2/0_Rucina_2

New Line.l(r:p1udm5510-p1udt1562lv) Units=km Length=0.05677200000000001 bus1=p1udt1562lv.1.2 bus2=p1udm5510.1.2 switch=n enabled=y phases=2 Linecode=1P_OH_AL_4/0_Zuzara_2

New Line.l(r:p1udm5511-p1ulv4277) Units=km Length=0.0221515 bus1=p1udm5511.1.2 bus2=p1ulv4277.1.2 switch=n enabled=y phases=2 Linecode=1P_OH_AL_2/0_Rucina_2

New Line.l(r:p1udm5511-p1udt1562lv) Units=km Length=0.0381619 bus1=p1udt1562lv.1.2 bus2=p1udm5511.1.2 switch=n enabled=y phases=2 Linecode=1P_OH_AL_4/0_Zuzara_2

New Line.l(r:p1udt1563lv-p1ulv1936) Units=km Length=0.0161669 bus1=p1udt1563lv.1.2 bus2=p1ulv1936.1.2 switch=n enabled=y phases=2 Linecode=1P_UG_AL_1/0_Brenau_2

New Line.l(r:p1udt1573lv-p1ulv1952) Units=km Length=0.0027983 bus1=p1udt1573lv.1.2 bus2=p1ulv1952.1.2 switch=n enabled=y phases=2 Linecode=1P_OH_AL_4_Periwinkle_2

New Line.l(r:p1udt1650lv-p1ulv2069) Units=km Length=0.00100125 bus1=p1udt1650lv.1.2 bus2=p1ulv2069.1.2 switch=n enabled=y phases=2 Linecode=1P_UG_AL_4/0_Sweetbriar_2

New Line.l(r:p1udt1656lv-p1ulv2076) Units=km Length=0.0161091 bus1=p1udt1656lv.1.2 bus2=p1ulv2076.1.2 switch=n enabled=y phases=2 Linecode=1P_OH_AL_2/0_Rucina_2

New Line.l(r:p1udt1662lv-p1ulv10477) Units=km Length=0.0139779 bus1=p1udt1662lv.1.2 bus2=p1ulv10477.1.2 switch=n enabled=y phases=2 Linecode=1P_UG_AL_1/0_Brenau_2

New Line.l(r:p1udt1662lv-p1ulv10979) Units=km Length=0.0138887 bus1=p1udt1662lv.1.2 bus2=p1ulv10979.1.2 switch=n enabled=y phases=2 Linecode=1P_UG_AL_1/0_Brenau_2

New Line.l(r:p1udt1662lv-p1ulv12151) Units=km Length=0.0158239 bus1=p1udt1662lv.1.2 bus2=p1ulv12151.1.2 switch=n enabled=y phases=2 Linecode=1P_UG_AL_1/0_Brenau_2

New Line.l(r:p1udm5806-p1ulv2090) Units=km Length=0.0138873 bus1=p1udm5806.1.2 bus2=p1ulv2090.1.2 switch=n enabled=y phases=2 Linecode=1P_UG_AL_1/0_Brenau_2

New Line.l(r:p1udm5806-p1udt1662lv) Units=km Length=0.0276307 bus1=p1udt1662lv.1.2 bus2=p1udm5806.1.2 switch=n enabled=y phases=2 Linecode=1P_UG_AL_1/0_Brenau_2

New Line.l(r:p1udm5807-p1ulv4057) Units=km Length=0.0135981 bus1=p1udm5807.1.2 bus2=p1ulv4057.1.2 switch=n enabled=y phases=2 Linecode=1P_UG_AL_1/0_Brenau_2

New Line.l(r:p1udm5807-p1udt1662lv) Units=km Length=0.0184205 bus1=p1udt1662lv.1.2 bus2=p1udm5807.1.2 switch=n enabled=y phases=2 Linecode=1P_UG_AL_1/0_Brenau_2

New Line.l(r:p1udt1731lv-p1ulv4520) Units=km Length=0.017276400000000004 bus1=p1udt1731lv.1.2 bus2=p1ulv4520.1.2 switch=n enabled=y phases=2 Linecode=1P_OH_AL_2/0_Rucina_2

New Line.l(r:p1udm6025-p1ulv2205) Units=km Length=0.0159069 bus1=p1udm6025.1.2 bus2=p1ulv2205.1.2 switch=n enabled=y phases=2 Linecode=1P_OH_AL_2/0_Rucina_2

New Line.l(r:p1udm6025-p1udt1731lv) Units=km Length=0.0376393 bus1=p1udt1731lv.1.2 bus2=p1udm6025.1.2 switch=n enabled=y phases=2 Linecode=1P_OH_AL_4/0_Zuzara_2

New Line.l(r:p1udm6027-p1ulv2206) Units=km Length=0.0179354 bus1=p1udm6027.1.2 bus2=p1ulv2206.1.2 switch=n enabled=y phases=2 Linecode=1P_UG_AL_1/0_Brenau_2

New Line.l(r:p1udm6029-p1ulv10847) Units=km Length=0.009025320000000002 bus1=p1udm6029.1.2 bus2=p1ulv10847.1.2 switch=n enabled=y phases=2 Linecode=1P_UG_AL_1/0_Brenau_2

New Line.l(r:p1udm6027-p1udm6029) Units=km Length=0.028271 bus1=p1udm6027.1.2 bus2=p1udm6029.1.2 switch=n enabled=y phases=2 Linecode=1P_UG_AL_1/0_Brenau_2

New Line.l(r:p1udm6027-p1udt1732lv) Units=km Length=0.00833005 bus1=p1udt1732lv.1.2 bus2=p1udm6027.1.2 switch=n enabled=y phases=2 Linecode=1P_UG_AL_1/0_Brenau_2

New Line.l(r:p1udm6028-p1ulv7265) Units=km Length=0.0146332 bus1=p1udm6028.1.2 bus2=p1ulv7265.1.2 switch=n enabled=y phases=2 Linecode=1P_UG_AL_1/0_Brenau_2

New Line.l(r:p1udm6028-p1udt1732lv) Units=km Length=0.0249702 bus1=p1udt1732lv.1.2 bus2=p1udm6028.1.2 switch=n enabled=y phases=2 Linecode=1P_UG_AL_1/0_Brenau_2

New Line.l(r:p1udt1744lv-p1ulv6914) Units=km Length=0.005568200000000001 bus1=p1udt1744lv.1.2 bus2=p1ulv6914.1.2 switch=n enabled=y phases=2 Linecode=1P_OH_AL_2/0_Rucina_2

New Line.l(r:p1udt1744lv-p1ulv11810) Units=km Length=0.0167956 bus1=p1udt1744lv.1.2 bus2=p1ulv11810.1.2 switch=n enabled=y phases=2 Linecode=1P_OH_AL_2/0_Rucina_2

New Line.l(r:p1udm6064-p1ulv2223) Units=km Length=0.0168271 bus1=p1udm6064.1.2 bus2=p1ulv2223.1.2 switch=n enabled=y phases=2 Linecode=1P_OH_AL_2/0_Rucina_2

New Line.l(r:p1udm6064-p1ulv2341) Units=km Length=0.0147825 bus1=p1udm6064.1.2 bus2=p1ulv2341.1.2 switch=n enabled=y phases=2 Linecode=1P_OH_AL_2/0_Rucina_2

New Line.l(r:p1udm6064-p1udt1744lv) Units=km Length=0.0198827 bus1=p1udt1744lv.1.2 bus2=p1udm6064.1.2 switch=n enabled=y phases=2 Linecode=1P_OH_AL_2/0_Rucina_2

New Line.l(r:p1udm6066-p1ulv3692) Units=km Length=0.0098794 bus1=p1udm6066.1.2 bus2=p1ulv3692.1.2 switch=n enabled=y phases=2 Linecode=1P_OH_AL_2/0_Rucina_2

New Line.l(r:p1udm6066-p1udt1744lv) Units=km Length=0.019872700000000004 bus1=p1udt1744lv.1.2 bus2=p1udm6066.1.2 switch=n enabled=y phases=2 Linecode=1P_OH_AL_2/0_Rucina_2

New Line.l(r:p1udt1745lv-p1ulv2224) Units=km Length=0.0090416 bus1=p1udt1745lv.1.2 bus2=p1ulv2224.1.2 switch=n enabled=y phases=2 Linecode=1P_OH_AL_2/0_Rucina_2

New Line.l(r:p1udt1801lv-p1ulv2326) Units=km Length=0.0186437 bus1=p1udt1801lv.1.2 bus2=p1ulv2326.1.2 switch=n enabled=y phases=2 Linecode=1P_OH_AL_2/0_Rucina_2

New Line.l(r:p1udt1804lv-p1ulv2331) Units=km Length=0.013844000000000002 bus1=p1udt1804lv.1.2 bus2=p1ulv2331.1.2 switch=n enabled=y phases=2 Linecode=1P_UG_AL_1/0_Brenau_2

New Line.l(r:p1udm6240-p1ulv9295) Units=km Length=0.0148851 bus1=p1udm6240.1.2 bus2=p1ulv9295.1.2 switch=n enabled=y phases=2 Linecode=1P_UG_AL_1/0_Brenau_2

New Line.l(r:p1udm6240-p1udt1804lv) Units=km Length=0.00917066 bus1=p1udt1804lv.1.2 bus2=p1udm6240.1.2 switch=n enabled=y phases=2 Linecode=1P_UG_AL_1/0_Brenau_2

New Line.l(r:p1udt1810lv-p1ulv10862) Units=km Length=0.0134186 bus1=p1udt1810lv.1.2 bus2=p1ulv10862.1.2 switch=n enabled=y phases=2 Linecode=1P_UG_AL_1/0_Brenau_2

New Line.l(r:p1udm6253-p1ulv2343) Units=km Length=0.0179935 bus1=p1udm6253.1.2 bus2=p1ulv2343.1.2 switch=n enabled=y phases=2 Linecode=1P_UG_AL_1/0_Brenau_2

New Line.l(r:p1udm6253-p1udt1810lv) Units=km Length=0.009682280000000001 bus1=p1udt1810lv.1.2 bus2=p1udm6253.1.2 switch=n enabled=y phases=2 Linecode=1P_UG_AL_1/0_Brenau_2

New Line.l(r:p1udm6255-p1ulv12153) Units=km Length=0.0285876 bus1=p1udm6255.1.2 bus2=p1ulv12153.1.2 switch=n enabled=y phases=2 Linecode=1P_UG_AL_1/0_Brenau_2

New Line.l(r:p1udm6255-p1udt1810lv) Units=km Length=0.009682280000000001 bus1=p1udt1810lv.1.2 bus2=p1udm6255.1.2 switch=n enabled=y phases=2 Linecode=1P_UG_AL_1/0_Brenau_2

New Line.l(r:p1udm6427-p1ulv2437) Units=km Length=0.0152483 bus1=p1udm6427.1.2 bus2=p1ulv2437.1.2 switch=n enabled=y phases=2 Linecode=1P_UG_AL_1/0_Brenau_2

New Line.l(r:p1udm6427-p1udt1864lv) Units=km Length=0.0294056 bus1=p1udt1864lv.1.2 bus2=p1udm6427.1.2 switch=n enabled=y phases=2 Linecode=1P_UG_AL_1/0_Brenau_2

New Line.l(r:p1udm6428-p1ulv7240) Units=km Length=0.0262233 bus1=p1udm6428.1.2 bus2=p1ulv7240.1.2 switch=n enabled=y phases=2 Linecode=1P_UG_AL_1/0_Brenau_2

New Line.l(r:p1udm6428-p1udt1864lv) Units=km Length=0.019605500000000005 bus1=p1udt1864lv.1.2 bus2=p1udm6428.1.2 switch=n enabled=y phases=2 Linecode=1P_UG_AL_1/0_Brenau_2

New Line.l(r:p1udt1878lv-p1ulv2463) Units=km Length=0.0129628 bus1=p1udt1878lv.1.2 bus2=p1ulv2463.1.2 switch=n enabled=y phases=2 Linecode=1P_OH_AL_2/0_Rucina_2

New Line.l(r:p1udm6462-p1ulv2715) Units=km Length=0.0170332 bus1=p1udm6462.1.2 bus2=p1ulv2715.1.2 switch=n enabled=y phases=2 Linecode=1P_OH_AL_2/0_Rucina_2

New Line.l(r:p1udm6462-p1udt1878lv) Units=km Length=0.0177656 bus1=p1udt1878lv.1.2 bus2=p1udm6462.1.2 switch=n enabled=y phases=2 Linecode=1P_OH_AL_2/0_Rucina_2

New Line.l(r:p1udm6645-p1ulv2592) Units=km Length=0.0230928 bus1=p1udm6645.1.2 bus2=p1ulv2592.1.2 switch=n enabled=y phases=2 Linecode=1P_OH_AL_2/0_Rucina_2

New Line.l(r:p1udm6645-p1udt1943lv) Units=km Length=0.057592 bus1=p1udt1943lv.1.2 bus2=p1udm6645.1.2 switch=n enabled=y phases=2 Linecode=1P_OH_AL_4/0_Zuzara_2

New Line.l(r:p1udm6646-p1ulv5764) Units=km Length=0.0127314 bus1=p1udm6646.1.2 bus2=p1ulv5764.1.2 switch=n enabled=y phases=2 Linecode=1P_OH_AL_2/0_Rucina_2

New Line.l(r:p1udm6646-p1udt1943lv) Units=km Length=0.0181148 bus1=p1udt1943lv.1.2 bus2=p1udm6646.1.2 switch=n enabled=y phases=2 Linecode=1P_OH_AL_2/0_Rucina_2

New Line.l(r:p1udm6647-p1ulv2593) Units=km Length=0.0201323 bus1=p1udm6647.1.2 bus2=p1ulv2593.1.2 switch=n enabled=y phases=2 Linecode=1P_OH_AL_2/0_Rucina_2

New Line.l(r:p1udm6647-p1udt1944lv) Units=km Length=0.0187672 bus1=p1udt1944lv.1.2 bus2=p1udm6647.1.2 switch=n enabled=y phases=2 Linecode=1P_OH_AL_2/0_Rucina_2

New Line.l(r:p1udm6648-p1ulv7136) Units=km Length=0.013949600000000001 bus1=p1udm6648.1.2 bus2=p1ulv7136.1.2 switch=n enabled=y phases=2 Linecode=1P_OH_AL_2/0_Rucina_2

New Line.l(r:p1udm6648-p1udt1944lv) Units=km Length=0.0375444 bus1=p1udt1944lv.1.2 bus2=p1udm6648.1.2 switch=n enabled=y phases=2 Linecode=1P_OH_AL_4/0_Zuzara_2

New Line.l(r:p1udt1945lv-p1ulv2594) Units=km Length=0.0619201 bus1=p1udt1945lv.1.2 bus2=p1ulv2594.1.2 switch=n enabled=y phases=2 Linecode=1P_OH_AL_4/0_Zuzara_2

...